<?xml version="1.0" encoding="UTF-8"?>

<!-- generated on 2026-07-04 14:28:14 by Eclipse SUMO netconvert Version 1.18.0
<configuration xmlns:xsi="http://www.w3.org/2001/XMLSchema-instance" xsi:noNamespaceSchemaLocation="http://sumo.dlr.de/xsd/netconvertConfiguration.xsd">

    <input>
        <sumo-net-file value="map.net.xml.xml"/>
    </input>

    <output>
        <output-file value="/home/claude/proj2/sumo/map.net.xml"/>
    </output>

    <processing>
        <geometry.min-radius.fix.railways value="false"/>
        <geometry.max-grade.fix value="false"/>
        <offset.disable-normalization value="true"/>
        <lefthand value="0"/>
    </processing>

    <edge_removal>
        <keep-edges.in-boundary value="141,866,741,1466"/>
        <remove-edges.isolated value="true"/>
    </edge_removal>

    <junctions>
        <no-turnarounds value="true"/>
        <junctions.corner-detail value="5"/>
        <junctions.limit-turn-speed value="5.50"/>
        <rectangular-lane-cut value="0"/>
    </junctions>

    <pedestrian>
        <walkingareas value="0"/>
    </pedestrian>

    <report>
        <ignore-errors value="true"/>
    </report>

</configuration>
-->

<net version="1.16" junctionCornerDetail="5" limitTurnSpeed="5.50" xmlns:xsi="http://www.w3.org/2001/XMLSchema-instance" xsi:noNamespaceSchemaLocation="http://sumo.dlr.de/xsd/net_file.xsd">

    <location netOffset="-784320.66,-1430263.16" convBoundary="0.00,754.79,837.09,1663.30" origBoundary="77.620394,12.924616,77.642263,12.951397" projParameter="+proj=utm +zone=43 +ellps=WGS84 +datum=WGS84 +units=m +no_defs"/>

    <type id="highway.footway" priority="1" numLanes="1" speed="2.78" allow="pedestrian" oneway="1" width="2.00"/>
    <type id="highway.living_street" priority="2" numLanes="1" speed="2.78" disallow="tram rail_urban rail rail_electric rail_fast ship" oneway="0"/>
    <type id="highway.primary" priority="12" numLanes="2" speed="27.78" disallow="tram rail_urban rail rail_electric rail_fast ship" oneway="0"/>
    <type id="highway.residential" priority="3" numLanes="1" speed="13.89" disallow="tram rail_urban rail rail_electric rail_fast ship" oneway="0"/>
    <type id="highway.secondary" priority="11" numLanes="1" speed="27.78" disallow="tram rail_urban rail rail_electric rail_fast ship" oneway="0"/>
    <type id="highway.service" priority="1" numLanes="1" speed="5.56" allow="pedestrian delivery bicycle" oneway="0"/>
    <type id="highway.tertiary" priority="10" numLanes="1" speed="22.22" disallow="tram rail_urban rail rail_electric rail_fast ship" oneway="0"/>

    <edge id=":10068956724_0" function="internal">
        <lane id=":10068956724_0_0" index="0" disallow="tram rail_urban rail rail_electric rail_fast ship" speed="27.78" length="4.17" shape="715.32,1409.06 718.39,1411.82"/>
        <lane id=":10068956724_0_1" index="1" disallow="tram rail_urban rail rail_electric rail_fast ship" speed="27.78" length="4.17" shape="713.14,1411.41 716.28,1414.22"/>
    </edge>
    <edge id=":10068956725_0" function="internal">
        <lane id=":10068956725_0_0" index="0" disallow="tram rail_urban rail rail_electric rail_fast ship" speed="27.78" length="3.62" shape="723.61,1404.22 720.90,1401.91"/>
        <lane id=":10068956725_0_1" index="1" disallow="tram rail_urban rail rail_electric rail_fast ship" speed="27.78" length="3.62" shape="725.72,1401.81 722.92,1399.43"/>
    </edge>
    <edge id=":10153682599_0" function="internal">
        <lane id=":10153682599_0_0" index="0" disallow="tram rail_urban rail rail_electric rail_fast ship" speed="6.79" length="9.53" shape="459.60,1267.24 458.57,1265.00 456.99,1263.59 454.84,1263.01 452.14,1263.27"/>
    </edge>
    <edge id=":10153682599_1" function="internal">
        <lane id=":10153682599_1_0" index="0" disallow="tram rail_urban rail rail_electric rail_fast ship" speed="13.89" length="14.54" shape="459.60,1267.24 455.14,1253.40"/>
    </edge>
    <edge id=":10153682599_2" function="internal">
        <lane id=":10153682599_2_0" index="0" disallow="tram rail_urban rail rail_electric rail_fast ship" speed="3.65" length="1.44" shape="459.60,1267.24 460.04,1265.87"/>
    </edge>
    <edge id=":10153682599_9" function="internal">
        <lane id=":10153682599_9_0" index="0" disallow="tram rail_urban rail rail_electric rail_fast ship" speed="3.65" length="3.23" shape="460.04,1265.87 460.71,1265.27 461.58,1265.44 462.68,1266.38"/>
    </edge>
    <edge id=":10153682599_3" function="internal">
        <lane id=":10153682599_3_0" index="0" disallow="tram rail_urban rail rail_electric rail_fast ship" speed="13.89" length="14.78" shape="458.15,1252.31 462.68,1266.38"/>
    </edge>
    <edge id=":10153682599_4" function="internal">
        <lane id=":10153682599_4_0" index="0" disallow="tram rail_urban rail rail_electric rail_fast ship" speed="7.79" length="4.46" shape="458.15,1252.31 458.98,1256.33 458.90,1256.68"/>
    </edge>
    <edge id=":10153682599_5" function="internal">
        <lane id=":10153682599_5_0" index="0" disallow="tram rail_urban rail rail_electric rail_fast ship" speed="3.65" length="1.44" shape="458.15,1252.31 457.80,1253.72"/>
    </edge>
    <edge id=":10153682599_10" function="internal">
        <lane id=":10153682599_10_0" index="0" disallow="tram rail_urban rail rail_electric rail_fast ship" speed="7.79" length="10.24" shape="458.90,1256.68 458.25,1259.50 455.97,1261.81 452.14,1263.27"/>
    </edge>
    <edge id=":10153682599_11" function="internal">
        <lane id=":10153682599_11_0" index="0" disallow="tram rail_urban rail rail_electric rail_fast ship" speed="3.65" length="3.23" shape="457.80,1253.72 457.19,1254.36 456.30,1254.26 455.14,1253.40"/>
    </edge>
    <edge id=":10153682599_6" function="internal">
        <lane id=":10153682599_6_0" index="0" disallow="tram rail_urban rail rail_electric rail_fast ship" speed="6.25" length="9.05" shape="451.44,1260.14 453.80,1259.25 455.20,1257.82 455.65,1255.88 455.14,1253.40"/>
    </edge>
    <edge id=":10153682599_7" function="internal">
        <lane id=":10153682599_7_0" index="0" disallow="tram rail_urban rail rail_electric rail_fast ship" speed="8.24" length="14.49" shape="451.44,1260.14 455.49,1259.78 458.71,1260.70 461.11,1262.90 462.68,1266.38"/>
    </edge>
    <edge id=":10153682599_8" function="internal">
        <lane id=":10153682599_8_0" index="0" disallow="tram rail_urban rail rail_electric rail_fast ship" speed="3.65" length="4.67" shape="451.44,1260.14 452.78,1260.66 453.35,1261.36 453.13,1262.22 452.14,1263.27"/>
    </edge>
    <edge id=":10153688987_0" function="internal">
        <lane id=":10153688987_0_0" index="0" allow="pedestrian delivery bicycle" speed="5.56" length="3.55" shape="686.59,1448.76 683.47,1447.05"/>
    </edge>
    <edge id=":10153688987_1" function="internal">
        <lane id=":10153688987_1_0" index="0" allow="pedestrian delivery bicycle" speed="3.65" length="1.44" shape="686.59,1448.76 685.92,1447.48"/>
    </edge>
    <edge id=":10153688987_4" function="internal">
        <lane id=":10153688987_4_0" index="0" allow="pedestrian delivery bicycle" speed="3.65" length="3.23" shape="685.92,1447.48 685.95,1446.59 686.68,1446.08 688.11,1445.95"/>
    </edge>
    <edge id=":10153688987_2" function="internal">
        <lane id=":10153688987_2_0" index="0" allow="pedestrian delivery bicycle" speed="5.56" length="3.53" shape="685.02,1444.25 688.11,1445.95"/>
    </edge>
    <edge id=":10153688987_3" function="internal">
        <lane id=":10153688987_3_0" index="0" allow="pedestrian delivery bicycle" speed="3.65" length="1.44" shape="685.02,1444.25 685.68,1445.53"/>
    </edge>
    <edge id=":10153688987_5" function="internal">
        <lane id=":10153688987_5_0" index="0" allow="pedestrian delivery bicycle" speed="3.65" length="3.23" shape="685.68,1445.53 685.65,1446.42 684.91,1446.93 683.47,1447.05"/>
    </edge>
    <edge id=":10153688988_0" function="internal">
        <lane id=":10153688988_0_0" index="0" allow="pedestrian delivery bicycle" speed="3.65" length="4.67" shape="704.73,1454.92 705.41,1456.20 705.38,1457.09 704.65,1457.60 703.21,1457.74"/>
    </edge>
    <edge id=":11017412094_0" function="internal">
        <lane id=":11017412094_0_0" index="0" disallow="tram rail_urban rail rail_electric rail_fast ship" speed="7.43" length="9.49" shape="540.71,900.81 539.91,899.18 538.33,897.94 535.97,897.12 532.84,896.69"/>
    </edge>
    <edge id=":11017412094_1" function="internal">
        <lane id=":11017412094_1_0" index="0" disallow="tram rail_urban rail rail_electric rail_fast ship" speed="13.89" length="13.24" shape="540.71,900.81 537.81,887.90"/>
    </edge>
    <edge id=":11017412094_2" function="internal">
        <lane id=":11017412094_2_0" index="0" disallow="tram rail_urban rail rail_electric rail_fast ship" speed="3.65" length="1.44" shape="540.71,900.81 541.23,899.47"/>
    </edge>
    <edge id=":11017412094_9" function="internal">
        <lane id=":11017412094_9_0" index="0" disallow="tram rail_urban rail rail_electric rail_fast ship" speed="3.65" length="3.23" shape="541.23,899.47 541.92,898.90 542.79,899.12 543.83,900.11"/>
    </edge>
    <edge id=":11017412094_3" function="internal">
        <lane id=":11017412094_3_0" index="0" disallow="tram rail_urban rail rail_electric rail_fast ship" speed="13.89" length="13.23" shape="540.94,887.20 543.83,900.11"/>
    </edge>
    <edge id=":11017412094_4" function="internal">
        <lane id=":11017412094_4_0" index="0" disallow="tram rail_urban rail rail_electric rail_fast ship" speed="7.59" length="4.41" shape="540.94,887.20 541.28,891.60"/>
    </edge>
    <edge id=":11017412094_5" function="internal">
        <lane id=":11017412094_5_0" index="0" disallow="tram rail_urban rail rail_electric rail_fast ship" speed="3.65" length="1.44" shape="540.94,887.20 540.42,888.55"/>
    </edge>
    <edge id=":11017412094_10" function="internal">
        <lane id=":11017412094_10_0" index="0" disallow="tram rail_urban rail rail_electric rail_fast ship" speed="7.59" length="10.99" shape="541.28,891.60 540.05,894.64 537.23,896.34 532.84,896.69"/>
    </edge>
    <edge id=":11017412094_11" function="internal">
        <lane id=":11017412094_11_0" index="0" disallow="tram rail_urban rail rail_electric rail_fast ship" speed="3.65" length="3.23" shape="540.42,888.55 539.73,889.11 538.86,888.89 537.81,887.90"/>
    </edge>
    <edge id=":11017412094_6" function="internal">
        <lane id=":11017412094_6_0" index="0" disallow="tram rail_urban rail rail_electric rail_fast ship" speed="5.98" length="9.08" shape="533.03,893.50 535.63,893.29 537.29,892.29 538.02,890.49 537.81,887.90"/>
    </edge>
    <edge id=":11017412094_7" function="internal">
        <lane id=":11017412094_7_0" index="0" disallow="tram rail_urban rail rail_electric rail_fast ship" speed="8.34" length="13.61" shape="533.03,893.50 537.25,894.13 540.46,895.45 542.65,897.44 543.83,900.11"/>
    </edge>
    <edge id=":11017412094_8" function="internal">
        <lane id=":11017412094_8_0" index="0" disallow="tram rail_urban rail rail_electric rail_fast ship" speed="2.78" length="4.67" shape="533.03,893.50 534.18,894.37 534.53,895.20 534.08,895.97 532.84,896.69"/>
    </edge>
    <edge id=":11017412095_0" function="internal">
        <lane id=":11017412095_0_0" index="0" disallow="tram rail_urban rail rail_electric rail_fast ship" speed="2.78" length="4.67" shape="500.01,894.65 498.86,893.77 498.51,892.95 498.96,892.18 500.21,891.45"/>
    </edge>
    <edge id=":11017412096_0" function="internal">
        <lane id=":11017412096_0_0" index="0" disallow="tram rail_urban rail rail_electric rail_fast ship" speed="8.22" length="10.99" shape="543.70,913.96 542.74,911.75 541.01,910.05 538.49,908.85 535.20,908.14"/>
    </edge>
    <edge id=":11017412096_1" function="internal">
        <lane id=":11017412096_1_0" index="0" disallow="tram rail_urban rail rail_electric rail_fast ship" speed="13.89" length="13.28" shape="543.70,913.96 540.75,901.01"/>
    </edge>
    <edge id=":11017412096_2" function="internal">
        <lane id=":11017412096_2_0" index="0" disallow="tram rail_urban rail rail_electric rail_fast ship" speed="3.65" length="1.44" shape="543.70,913.96 544.25,912.62"/>
    </edge>
    <edge id=":11017412096_9" function="internal">
        <lane id=":11017412096_9_0" index="0" disallow="tram rail_urban rail rail_electric rail_fast ship" speed="3.65" length="3.23" shape="544.25,912.62 544.95,912.07 545.81,912.30 546.84,913.31"/>
    </edge>
    <edge id=":11017412096_3" function="internal">
        <lane id=":11017412096_3_0" index="0" disallow="tram rail_urban rail rail_electric rail_fast ship" speed="13.89" length="13.34" shape="543.87,900.31 546.84,913.31"/>
    </edge>
    <edge id=":11017412096_4" function="internal">
        <lane id=":11017412096_4_0" index="0" disallow="tram rail_urban rail rail_electric rail_fast ship" speed="7.30" length="3.93" shape="543.87,900.31 544.10,904.23"/>
    </edge>
    <edge id=":11017412096_5" function="internal">
        <lane id=":11017412096_5_0" index="0" disallow="tram rail_urban rail rail_electric rail_fast ship" speed="3.65" length="1.44" shape="543.87,900.31 543.36,901.65"/>
    </edge>
    <edge id=":11017412096_10" function="internal">
        <lane id=":11017412096_10_0" index="0" disallow="tram rail_urban rail rail_electric rail_fast ship" speed="7.30" length="10.76" shape="544.10,904.23 542.73,906.85 539.76,908.15 535.20,908.14"/>
    </edge>
    <edge id=":11017412096_11" function="internal">
        <lane id=":11017412096_11_0" index="0" disallow="tram rail_urban rail rail_electric rail_fast ship" speed="3.65" length="3.23" shape="543.36,901.65 542.66,902.22 541.79,902.00 540.75,901.01"/>
    </edge>
    <edge id=":11017412096_6" function="internal">
        <lane id=":11017412096_6_0" index="0" disallow="tram rail_urban rail rail_electric rail_fast ship" speed="5.60" length="8.11" shape="535.59,904.97 538.24,905.01 539.99,904.36 540.83,903.03 540.75,901.01"/>
    </edge>
    <edge id=":11017412096_7" function="internal">
        <lane id=":11017412096_7_0" index="0" disallow="tram rail_urban rail rail_electric rail_fast ship" speed="8.34" length="14.98" shape="535.59,904.97 539.89,905.93 543.19,907.64 545.51,910.11 546.84,913.31"/>
    </edge>
    <edge id=":11017412096_8" function="internal">
        <lane id=":11017412096_8_0" index="0" disallow="tram rail_urban rail rail_electric rail_fast ship" speed="2.78" length="4.67" shape="535.59,904.97 536.68,905.91 536.98,906.75 536.48,907.50 535.20,908.14"/>
    </edge>
    <edge id=":11017412097_0" function="internal">
        <lane id=":11017412097_0_0" index="0" disallow="tram rail_urban rail rail_electric rail_fast ship" speed="2.78" length="4.67" shape="489.47,902.51 488.38,901.57 488.08,900.72 488.58,899.98 489.87,899.33"/>
    </edge>
    <edge id=":11017447792_0" function="internal">
        <lane id=":11017447792_0_0" index="0" disallow="tram rail_urban rail rail_electric rail_fast ship" speed="13.89" length="14.24" shape="451.52,947.14 437.29,946.70"/>
    </edge>
    <edge id=":11017447792_1" function="internal">
        <lane id=":11017447792_1_0" index="0" disallow="tram rail_urban rail rail_electric rail_fast ship" speed="8.23" length="3.78" shape="451.52,947.14 447.82,946.41"/>
    </edge>
    <edge id=":11017447792_2" function="internal">
        <lane id=":11017447792_2_0" index="0" disallow="tram rail_urban rail rail_electric rail_fast ship" speed="3.65" length="1.44" shape="451.52,947.14 450.37,946.28"/>
    </edge>
    <edge id=":11017447792_9" function="internal">
        <lane id=":11017447792_9_0" index="0" disallow="tram rail_urban rail rail_electric rail_fast ship" speed="8.23" length="10.43" shape="447.82,946.41 445.13,944.63 443.48,941.80 442.86,937.92"/>
    </edge>
    <edge id=":11017447792_10" function="internal">
        <lane id=":11017447792_10_0" index="0" disallow="tram rail_urban rail rail_electric rail_fast ship" speed="3.65" length="3.23" shape="450.37,946.28 450.00,945.46 450.44,944.68 451.68,943.94"/>
    </edge>
    <edge id=":11017447792_3" function="internal">
        <lane id=":11017447792_3_0" index="0" disallow="tram rail_urban rail rail_electric rail_fast ship" speed="6.78" length="9.32" shape="446.05,937.84 446.46,940.41 447.53,942.28 449.27,943.46 451.68,943.94"/>
    </edge>
    <edge id=":11017447792_4" function="internal">
        <lane id=":11017447792_4_0" index="0" disallow="tram rail_urban rail rail_electric rail_fast ship" speed="7.93" length="14.34" shape="446.05,937.84 445.59,941.76 443.98,944.55 441.21,946.19 437.29,946.70"/>
    </edge>
    <edge id=":11017447792_5" function="internal">
        <lane id=":11017447792_5_0" index="0" disallow="tram rail_urban rail rail_electric rail_fast ship" speed="2.78" length="4.67" shape="446.05,937.84 445.28,939.06 444.50,939.48 443.69,939.10 442.86,937.92"/>
    </edge>
    <edge id=":11017447792_6" function="internal">
        <lane id=":11017447792_6_0" index="0" disallow="tram rail_urban rail rail_electric rail_fast ship" speed="6.42" length="9.04" shape="437.34,943.50 439.80,943.18 441.55,942.14 442.56,940.39 442.86,937.92"/>
    </edge>
    <edge id=":11017447792_7" function="internal">
        <lane id=":11017447792_7_0" index="0" disallow="tram rail_urban rail rail_electric rail_fast ship" speed="13.89" length="14.35" shape="437.34,943.50 451.68,943.94"/>
    </edge>
    <edge id=":11017447792_8" function="internal">
        <lane id=":11017447792_8_0" index="0" disallow="tram rail_urban rail rail_electric rail_fast ship" speed="3.65" length="1.44" shape="437.34,943.50 438.52,944.32"/>
    </edge>
    <edge id=":11017447792_11" function="internal">
        <lane id=":11017447792_11_0" index="0" disallow="tram rail_urban rail rail_electric rail_fast ship" speed="3.65" length="3.23" shape="438.52,944.32 438.91,945.12 438.50,945.92 437.29,946.70"/>
    </edge>
    <edge id=":11017447793_0" function="internal">
        <lane id=":11017447793_0_0" index="0" disallow="tram rail_urban rail rail_electric rail_fast ship" speed="2.78" length="4.67" shape="442.06,906.54 442.83,905.32 443.62,904.90 444.43,905.28 445.26,906.46"/>
    </edge>
    <edge id=":11184987090_0" function="internal">
        <lane id=":11184987090_0_0" index="0" disallow="tram rail_urban rail rail_electric rail_fast ship" speed="13.89" length="0.31" shape="416.49,946.42 416.18,946.41"/>
    </edge>
    <edge id=":11184987090_1" function="internal">
        <lane id=":11184987090_1_0" index="0" disallow="tram rail_urban rail rail_electric rail_fast ship" speed="13.89" length="0.23" shape="416.31,943.22 416.54,943.22"/>
    </edge>
    <edge id=":11493493815_0" function="internal">
        <lane id=":11493493815_0_0" index="0" disallow="tram rail_urban rail rail_electric rail_fast ship" speed="13.89" length="4.06" shape="665.72,1440.56 662.68,1437.87"/>
    </edge>
    <edge id=":11493493815_1" function="internal">
        <lane id=":11493493815_1_0" index="0" disallow="tram rail_urban rail rail_electric rail_fast ship" speed="13.89" length="3.99" shape="664.82,1435.49 667.80,1438.14"/>
    </edge>
    <edge id=":11493493818_0" function="internal">
        <lane id=":11493493818_0_0" index="0" disallow="tram rail_urban rail rail_electric rail_fast ship" speed="27.78" length="5.24" shape="696.89,1410.08 693.60,1414.13"/>
        <lane id=":11493493818_0_1" index="1" disallow="tram rail_urban rail rail_electric rail_fast ship" speed="27.78" length="5.24" shape="694.43,1408.04 691.10,1412.13"/>
    </edge>
    <edge id=":11493493819_0" function="internal">
        <lane id=":11493493819_0_0" index="0" disallow="tram rail_urban rail rail_electric rail_fast ship" speed="27.78" length="5.54" shape="698.05,1417.31 701.64,1413.09"/>
        <lane id=":11493493819_0_1" index="1" disallow="tram rail_urban rail rail_electric rail_fast ship" speed="27.78" length="5.54" shape="700.49,1419.38 704.07,1415.17"/>
    </edge>
    <edge id=":11780212790_0" function="internal">
        <lane id=":11780212790_0_0" index="0" disallow="tram rail_urban rail rail_electric rail_fast ship" speed="13.89" length="3.49" shape="397.53,1145.53 394.70,1147.57"/>
    </edge>
    <edge id=":11780212790_1" function="internal">
        <lane id=":11780212790_1_0" index="0" disallow="tram rail_urban rail rail_electric rail_fast ship" speed="13.89" length="3.49" shape="392.83,1144.98 395.66,1142.94"/>
    </edge>
    <edge id=":11780212798_0" function="internal">
        <lane id=":11780212798_0_0" index="0" disallow="tram rail_urban rail rail_electric rail_fast ship" speed="13.89" length="1.23" shape="426.60,1404.95 425.80,1404.00"/>
    </edge>
    <edge id=":11780212798_1" function="internal">
        <lane id=":11780212798_1_0" index="0" disallow="tram rail_urban rail rail_electric rail_fast ship" speed="13.89" length="1.24" shape="428.26,1401.95 429.05,1402.90"/>
    </edge>
    <edge id=":11780212799_0" function="internal">
        <lane id=":11780212799_0_0" index="0" disallow="tram rail_urban rail rail_electric rail_fast ship" speed="13.89" length="2.57" shape="399.36,1434.92 397.66,1432.99"/>
    </edge>
    <edge id=":11780212799_1" function="internal">
        <lane id=":11780212799_1_0" index="0" disallow="tram rail_urban rail rail_electric rail_fast ship" speed="13.89" length="2.58" shape="400.07,1430.87 401.77,1432.81"/>
    </edge>
    <edge id=":12183377236_0" function="internal">
        <lane id=":12183377236_0_0" index="0" allow="pedestrian delivery bicycle" speed="5.56" length="13.04" shape="725.51,1441.06 723.01,1438.70 720.64,1436.73 718.21,1434.84 715.49,1432.72"/>
    </edge>
    <edge id=":12183377236_1" function="internal">
        <lane id=":12183377236_1_0" index="0" allow="pedestrian delivery bicycle" speed="5.56" length="14.17" shape="725.51,1441.06 723.16,1438.12 721.76,1434.98 721.31,1431.64 721.81,1428.08"/>
    </edge>
    <edge id=":12183377236_2" function="internal">
        <lane id=":12183377236_2_0" index="0" allow="pedestrian delivery bicycle" speed="3.65" length="4.67" shape="725.51,1441.06 725.23,1439.64 725.51,1438.79 726.36,1438.51 727.78,1438.79"/>
    </edge>
    <edge id=":12183377236_3" function="internal">
        <lane id=":12183377236_3_0" index="0" allow="pedestrian delivery bicycle" speed="5.56" length="12.30" shape="725.32,1427.33 724.76,1430.71 724.98,1433.75 725.99,1436.44 727.78,1438.79"/>
    </edge>
    <edge id=":12183377236_4" function="internal">
        <lane id=":12183377236_4_0" index="0" allow="pedestrian delivery bicycle" speed="5.56" length="14.36" shape="725.32,1427.33 723.61,1431.76 721.41,1434.14 718.70,1434.45 715.49,1432.72"/>
    </edge>
    <edge id=":12183377236_5" function="internal">
        <lane id=":12183377236_5_0" index="0" allow="pedestrian delivery bicycle" speed="3.80" length="5.25" shape="725.32,1427.33 724.72,1428.84 723.94,1429.46 722.97,1429.21 721.81,1428.08"/>
    </edge>
    <edge id=":12183377236_6" function="internal">
        <lane id=":12183377236_6_0" index="0" allow="pedestrian delivery bicycle" speed="4.92" length="6.20" shape="717.49,1430.22 718.92,1431.01 720.11,1430.92 721.08,1429.94 721.81,1428.08"/>
    </edge>
    <edge id=":12183377236_7" function="internal">
        <lane id=":12183377236_7_0" index="0" allow="pedestrian delivery bicycle" speed="5.56" length="13.40" shape="717.49,1430.22 720.25,1432.38 722.77,1434.35 725.23,1436.40 727.78,1438.79"/>
    </edge>
    <edge id=":12183377236_8" function="internal">
        <lane id=":12183377236_8_0" index="0" allow="pedestrian delivery bicycle" speed="3.65" length="4.67" shape="717.49,1430.22 717.93,1431.59 717.74,1432.47 716.93,1432.84 715.49,1432.72"/>
    </edge>
    <edge id=":12183377237_0" function="internal">
        <lane id=":12183377237_0_0" index="0" disallow="tram rail_urban rail rail_electric rail_fast ship" speed="27.78" length="10.14" shape="723.99,1416.75 731.61,1423.45"/>
        <lane id=":12183377237_0_1" index="1" disallow="tram rail_urban rail rail_electric rail_fast ship" speed="27.78" length="10.14" shape="721.88,1419.15 729.50,1425.85"/>
    </edge>
    <edge id=":12183377237_2" function="internal">
        <lane id=":12183377237_2_0" index="0" allow="pedestrian delivery bicycle" speed="7.98" length="9.15" shape="721.88,1419.15 723.80,1421.15 725.03,1423.14 725.56,1425.12 725.38,1427.10"/>
    </edge>
    <edge id=":12183377237_3" function="internal">
        <lane id=":12183377237_3_0" index="0" allow="pedestrian delivery bicycle" speed="5.79" length="9.37" shape="722.29,1426.27 723.29,1424.19 724.82,1423.43 726.89,1423.98 729.50,1425.85"/>
    </edge>
    <edge id=":12183377237_4" function="internal">
        <lane id=":12183377237_4_0" index="0" allow="pedestrian delivery bicycle" speed="3.65" length="4.67" shape="722.29,1426.27 723.37,1425.32 724.25,1425.14 724.92,1425.73 725.38,1427.10"/>
    </edge>
    <edge id=":12183377240_0" function="internal">
        <lane id=":12183377240_0_0" index="0" allow="pedestrian delivery bicycle" speed="3.65" length="4.67" shape="694.94,1443.48 693.56,1443.89 692.69,1443.69 692.33,1442.87 692.48,1441.44"/>
    </edge>
    <edge id=":12183383565_0" function="internal">
        <lane id=":12183383565_0_0" index="0" allow="pedestrian delivery bicycle" speed="5.56" length="1.69" shape="688.25,1449.66 686.77,1448.85"/>
    </edge>
    <edge id=":12183383565_1" function="internal">
        <lane id=":12183383565_1_0" index="0" allow="pedestrian delivery bicycle" speed="5.56" length="1.69" shape="688.29,1446.04 689.77,1446.84"/>
    </edge>
    <edge id=":12740817760_0" function="internal">
        <lane id=":12740817760_0_0" index="0" disallow="tram rail_urban rail rail_electric rail_fast ship" speed="27.78" length="0.10" shape="698.68,1394.69 698.60,1394.62"/>
        <lane id=":12740817760_0_1" index="1" disallow="tram rail_urban rail rail_electric rail_fast ship" speed="27.78" length="0.10" shape="696.65,1397.16 696.57,1397.09"/>
    </edge>
    <edge id=":12740817761_0" function="internal">
        <lane id=":12740817761_0_0" index="0" disallow="tram rail_urban rail rail_electric rail_fast ship" speed="27.78" length="0.30" shape="721.57,1389.86 721.78,1389.64"/>
        <lane id=":12740817761_0_1" index="1" disallow="tram rail_urban rail rail_electric rail_fast ship" speed="27.78" length="0.30" shape="723.92,1392.03 724.13,1391.80"/>
    </edge>
    <edge id=":1625402539_0" function="internal">
        <lane id=":1625402539_0_0" index="0" disallow="tram rail_urban rail rail_electric rail_fast ship" speed="27.78" length="0.23" shape="377.64,1086.43 377.49,1086.11"/>
        <lane id=":1625402539_0_1" index="1" disallow="tram rail_urban rail rail_electric rail_fast ship" speed="27.78" length="0.23" shape="380.49,1084.96 380.44,1084.86"/>
    </edge>
    <edge id=":1675239400_0" function="internal">
        <lane id=":1675239400_0_0" index="0" disallow="tram rail_urban rail rail_electric rail_fast ship" speed="27.78" length="0.10" shape="697.79,1417.62 697.85,1417.55"/>
        <lane id=":1675239400_0_1" index="1" disallow="tram rail_urban rail rail_electric rail_fast ship" speed="27.78" length="0.10" shape="700.35,1419.54 700.29,1419.61"/>
    </edge>
    <edge id=":17327139_0" function="internal">
        <lane id=":17327139_0_0" index="0" disallow="tram rail_urban rail rail_electric rail_fast ship" speed="27.78" length="13.76" shape="398.62,1134.05 400.88,1137.33 402.53,1139.51 404.38,1141.52 407.24,1144.30"/>
        <lane id=":17327139_0_1" index="1" disallow="tram rail_urban rail rail_electric rail_fast ship" speed="27.78" length="13.76" shape="395.98,1135.86 398.35,1139.30 400.09,1141.58 402.03,1143.69 405.02,1146.61"/>
    </edge>
    <edge id=":17327139_2" function="internal">
        <lane id=":17327139_2_0" index="0" disallow="tram rail_urban rail rail_electric rail_fast ship" speed="7.06" length="10.62" shape="395.98,1135.86 397.94,1139.17 398.88,1141.87 398.80,1143.95 397.69,1145.42"/>
    </edge>
    <edge id=":17327139_3" function="internal">
        <lane id=":17327139_3_0" index="0" disallow="tram rail_urban rail rail_electric rail_fast ship" speed="7.51" length="10.63" shape="395.83,1142.82 397.53,1142.25 399.62,1142.69 402.12,1144.14 405.02,1146.61"/>
    </edge>
    <edge id=":17327139_4" function="internal">
        <lane id=":17327139_4_0" index="0" disallow="tram rail_urban rail rail_electric rail_fast ship" speed="3.65" length="4.67" shape="395.83,1142.82 397.27,1142.77 398.06,1143.18 398.20,1144.07 397.69,1145.42"/>
    </edge>
    <edge id=":1762201161_0" function="internal">
        <lane id=":1762201161_0_0" index="0" allow="pedestrian delivery bicycle" speed="5.85" length="10.95" shape="751.41,1443.58 754.17,1446.09 755.03,1448.13 754.01,1449.70 751.09,1450.81"/>
    </edge>
    <edge id=":1762201161_1" function="internal">
        <lane id=":1762201161_1_0" index="0" allow="pedestrian delivery bicycle" speed="3.65" length="4.68" shape="750.50,1447.66 751.82,1448.22 752.36,1448.94 752.12,1449.80 751.09,1450.81"/>
    </edge>
    <edge id=":254920223_0" function="internal">
        <lane id=":254920223_0_0" index="0" disallow="tram rail_urban rail rail_electric rail_fast ship" speed="27.78" length="0.58" shape="373.72,1097.57 373.76,1097.65 373.79,1097.70 373.82,1097.75 373.86,1097.83"/>
        <lane id=":254920223_0_1" index="1" disallow="tram rail_urban rail rail_electric rail_fast ship" speed="27.78" length="0.58" shape="370.80,1098.88 370.91,1099.11 370.99,1099.27 371.08,1099.42 371.22,1099.63"/>
    </edge>
    <edge id=":260729391_0" function="internal">
        <lane id=":260729391_0_0" index="0" disallow="tram rail_urban rail rail_electric rail_fast ship" speed="27.78" length="0.11" shape="723.80,1404.39 723.74,1404.34"/>
        <lane id=":260729391_0_1" index="1" disallow="tram rail_urban rail rail_electric rail_fast ship" speed="27.78" length="0.11" shape="725.95,1402.02 725.85,1401.93"/>
    </edge>